*HEADING
Acrylic Pan graded C3D20R modal model
*NODE
1,0.00000000,0.00000000,-2.50000000
2,25.00000000,0.00000000,-2.50000000
3,25.00000000,5.00000000,-2.50000000
4,0.00000000,5.00000000,-2.50000000
5,0.00000000,0.00000000,0.00000000
6,25.00000000,0.00000000,0.00000000
7,25.00000000,5.00000000,0.00000000
8,0.00000000,5.00000000,0.00000000
9,12.50000000,0.00000000,-2.50000000
10,25.00000000,2.50000000,-2.50000000
11,12.50000000,5.00000000,-2.50000000
12,0.00000000,2.50000000,-2.50000000
13,12.50000000,0.00000000,0.00000000
14,25.00000000,2.50000000,0.00000000
15,12.50000000,5.00000000,0.00000000
16,0.00000000,2.50000000,0.00000000
17,0.00000000,0.00000000,-1.25000000
18,25.00000000,0.00000000,-1.25000000
19,25.00000000,5.00000000,-1.25000000
20,0.00000000,5.00000000,-1.25000000
** ... 4249 like lines cut
*ELEMENT,TYPE=C3D20R,ELSET=SOLID
1,1,2,3,4,5,6,7,8,9,10,11,12,13,14,15
16,17,18,19,20
2,2,21,22,3,6,23,24,7,25,26,27,10,28,29,30
14,18,31,32,19
3,21,33,34,22,23,35,36,24,37,38,39,26,40,41,42
29,31,43,44,32
4,33,45,46,34,35,47,48,36,49,50,51,38,52,53,54
41,43,55,56,44
5,45,57,58,46,47,59,60,48,61,62,63,50,64,65,66
53,55,67,68,56
6,57,69,70,58,59,71,72,60,73,74,75,62,76,77,78
65,67,79,80,68
7,69,81,82,70,71,83,84,72,85,86,87,74,88,89,90
77,79,91,92,80
8,81,93,94,82,83,95,96,84,97,98,99,86,100,101,102
89,91,103,104,92
9,93,105,106,94,95,107,108,96,109,110,111,98,112,113,114
101,103,115,116,104
10,105,117,118,106,107,119,120,108,121,122,123,110,124,125,126
113,115,127,128,116
** ... 1420 like lines cut
*NSET,NSET=FIXED
105,106,107,108,110,113,115,116,117,118,119,120,121,122,123,124
125,126,127,128,129,130,131,132,133,134,135,136,137,138,139,140
141,142,143,144,145,146,147,148,149,150,151,152,153,154,155,156
157,158,159,160,161,162,163,164,165,166,167,168,169,170,171,172
173,174,175,176,177,178,179,180,181,182,183,184,185,186,187,188
310,311,312,314,316,317,318,319,320,321,322,323,324,325,326,327
328,329,330,331,332,333,334,335,336,337,338,339,340,341,342,343
344,345,346,347,348,349,350,351,352,353,354,355,356,357,358,455
456,457,459,461,462,463,464,465,466,467,468,469,470,471,472,473
474,475,476,477,478,479,480,481,482,483,484,485,486,487,488,489
490,491,492,493,494,495,496,497,498,499,500,501,502,503,600,601
602,604,606,607,608,609,610,611,612,613,614,615,616,617,618,619
620,621,622,623,624,625,626,627,628,629,630,631,632,633,634,635
636,637,638,639,640,641,642,643,644,645,646,647,648,2775,2776,2778
2780,2781,2782,2783,2784,2785,2786,2787,2788,2789,2790,2791,2792,2793,2794,2795
2796,2797,2798,2799,2800,2801,2802,2803,2804,2805,2806,2807,2808,2809,2810,2811
2812,2813,2814,2815,2816,2817,2818,2819,2820,2821,2822,2823,2894,2895,2897,2898
2899,2900,2901,2902,2903,2904,2905,2906,2907,2908,2909,2910,2911,2912,2913,2914
2915,2916,2917,2918,2919,2920,2921,2977,2978,2980,2981,2982,2983,2984,2985,2986
2987,2988,2989,2990,2991,2992,2993,2994,2995,2996,2997,2998,2999,3000,3001,3002
3003,3004,3060,3061,3063,3064,3065,3066,3067,3068,3069,3070,3071,3072,3073,3074
3075,3076,3077,3078,3079,3080,3081,3082,3083,3084,3085,3086,3087
*NSET,NSET=TOPSURFACE
2714,2715,2716,2717,2718,2719,2720,2721,2726,2727,2728,2729,2730,2733,2734,2735
2736,2737,2740,2741,2742,2743,2744,2747,2748,2749,2750,2751,2754,2755,2756,2757
2758,2761,2762,2763,2764,2765,2768,2769,2770,2771,2772,2775,2776,2777,2778,2779
2782,2783,2784,2785,2786,2789,2790,2791,2792,2793,2796,2797,2798,2799,2800,2803
2804,2805,2806,2807,2810,2811,2812,2813,2814,2817,2818,2819,2820,2821,2824,2825
2826,2827,2828,2831,2832,2833,2834,2835,2838,2839,2840,2841,2842,2845,2846,2847
2848,2849,2852,2853,2854,2855,2856,2859,2860,2861,2862,2863,2866,2867,2868,2870
2871,2872,2874,2875,2876,2878,2879,2880,2882,2883,2884,2886,2887,2888,2890,2891
2892,2894,2895,2896,2898,2899,2900,2902,2903,2904,2906,2907,2908,2910,2911,2912
2914,2915,2916,2918,2919,2920,2922,2923,2924,2926,2927,2928,2930,2931,2932,2934
2935,2936,2938,2939,2940,2942,2943,2944,2945,2946,2949,2950,2951,2953,2954,2955
2957,2958,2959,2961,2962,2963,2965,2966,2967,2969,2970,2971,2973,2974,2975,2977
2978,2979,2981,2982,2983,2985,2986,2987,2989,2990,2991,2993,2994,2995,2997,2998
2999,3001,3002,3003,3005,3006,3007,3009,3010,3011,3013,3014,3015,3017,3018,3019
3021,3022,3023,3025,3026,3027,3028,3029,3032,3033,3034,3036,3037,3038,3040,3041
3042,3044,3045,3046,3048,3049,3050,3052,3053,3054,3056,3057,3058,3060,3061,3062
3064,3065,3066,3068,3069,3070,3072,3073,3074,3076,3077,3078,3080,3081,3082,3084
3085,3086,3088,3089,3090,3092,3093,3094,3096,3097,3098,3100,3101,3102,3104,3105
3106,3108,3109,3110,3111,3112,3115,3116,3117,3119,3120,3121,3123,3124,3125,3127
3128,3129,3131,3132,3133,3135,3136,3137,3139,3140,3141,3143,3144,3145,3147,3148
** ... 53 like lines cut
*NSET,NSET=OBSERVATION
3198,3214,3238,3262,3696,3712,3724,3736,3760,4028,4044,4068,4092
*NSET,NSET=SENSOR
3724
*NSET,NSET=HIT_area01
3198
*NSET,NSET=HIT_area02
3214
*NSET,NSET=HIT_area03
3238
*NSET,NSET=HIT_area04
3262
*NSET,NSET=HIT_area05
3696
*NSET,NSET=HIT_area06
3712
*NSET,NSET=HIT_area07
3736
*NSET,NSET=HIT_area08
3760
*NSET,NSET=HIT_area09
4028
*NSET,NSET=HIT_area10
4044
*NSET,NSET=HIT_area11
4068
*NSET,NSET=HIT_area12
4092
*MATERIAL,NAME=PMMA
*ELASTIC
3200.,0.35
*DENSITY
1.18E-9
*SOLID SECTION,ELSET=SOLID,MATERIAL=PMMA
*BOUNDARY
FIXED,1,3
*AMPLITUDE,NAME=IMPULSE,TIME=TOTAL TIME
0.,0.,0.00015625,6400.,0.0003125,0.,0.320000,0.
*STEP,INC=10000
*MODAL DYNAMIC,DIRECT
0.00015625,0.320000
*MODAL DAMPING,MODAL=DIRECT
1,30,0.012
*CLOAD,AMPLITUDE=IMPULSE
HIT_area11,3,1.0
*NODE PRINT,NSET=SENSOR,GLOBAL=YES,FREQUENCY=1
U
*END STEP
